<?xml version="1.0" encoding="UTF-8"?>

<!-- generated on 11/16/20 21:07:10 by Eclipse SUMO sumo Version 1.7.0
-->

<configuration xmlns:xsi="http://www.w3.org/2001/XMLSchema-instance" xsi:noNamespaceSchemaLocation="http://sumo.dlr.de/xsd/sumoConfiguration.xsd">
    <input>
        <net-file value="network.net.xml"/>
        <route-files value="network.rou.xml"/>
    </input>
    <time>
        <begin value="0"/>
        <end value="36000"/>
    </time>
</configuration>
