<?xml version="1.0" encoding="UTF-8"?>
<!-- generated on 2020-12-03 00:00:54.717616 by randomTrips.py v1_7_0+0000-714814baed
  options: -n network.net.xml
-->
<routes xmlns:xsi="http://www.w3.org/2001/XMLSchema-instance" xsi:noNamespaceSchemaLocation="http://sumo.dlr.de/xsd/routes_file.xsd">
    <trip id="0" m="194452010#2" to="-150996422#0"/>
    <trip id="1" m="-451549188" to="-34888558#0"/>
    <trip id="2" m="26964129#2" to="232312993#0"/>
    <trip id="3" m="498792736" to="-180874080#0"/>
    <trip id="4" m="151293113#0" to="-150996425"/>
    <trip id="5" m="-297593040" to="168425249#0"/>
    <trip id="6" m="-150996422#3" to="-26964056#2"/>
    <trip id="7" m="202146723#0" to="179794909#2"/>
    <trip id="8" m="-305607065#0" to="188944052#1"/>
    <trip id="9" m="34795258#0" to="-150941573"/>
    <trip id="10" om="34795111" to="234353011"/>
    <trip id="11" om="150942070#4" to="-228766404#5"/>
    <trip id="12" om="774963557#1" to="150943403#6"/>
    <trip id="13" om="-180874082#3" to="-180876819#2"/>
    <trip id="14" om="358445843" to="194249916#2"/>
    <trip id="15" om="34795198#1" to="26964129#0"/>
    <trip id="16" om="168426971#0" to="851909119"/>
    <trip id="17" om="150970795#3" to="180126616#1"/>
    <trip id="18" om="34888945#1" to="194291569#1"/>
    <trip id="19" om="372218550#0" to="180880931#1"/>
    <trip id="20" om="239165086#1" to="-151224875#12"/>
    <trip id="21" om="-34795258#3" to="-858235728#4"/>
    <trip id="22" om="-177461163#2" to="-353208563#0"/>
    <trip id="23" om="-182517033#2" to="-737355012#1"/>
    <trip id="24" om="194291569#3" to="150970795#5"/>
    <trip id="25" om="150970156#0" to="-305607065#1"/>
    <trip id="26" om="-371876690" to="737355012#0"/>
    <trip id="27" om="197451487#2" to="194281369#1"/>
    <trip id="28" om="-232308683#1" to="26964056#2"/>
    <trip id="29" om="-228766404#0" to="150997303#3"/>
    <trip id="30" om="858235727#1" to="197451487#3"/>
    <trip id="31" om="179794908#1" to="232312994#5"/>
    <trip id="32" om="353208563#1" to="305050925"/>
    <trip id="33" om="-34795258#5" to="-150997303#0"/>
    <trip id="34" om="108219017#1" to="-498792738"/>
    <trip id="35" om="-26964129#1" to="748585944"/>
    <trip id="36" om="48137056#0" to="150941563#1"/>
    <trip id="37" om="223275940#3" to="151224875#6"/>
    <trip id="38" om="550260663" to="156350686#6"/>
    <trip id="39" om="-371868257#1" to="-371867927#3"/>
    <trip id="40" om="179795912#0" to="-48137058#0"/>
    <trip id="41" om="180874082#2" to="550259422#0"/>
    <trip id="42" om="150998056#2" to="-34888304#1"/>
    <trip id="43" om="89536749#1" to="168425927#1"/>
    <trip id="44" om="-180874082#1" to="-151224875#13"/>
    <trip id="45" om="-193297222#0" to="194452129#1"/>
    <trip id="46" om="305606822" to="156220110#1"/>
    <trip id="47" om="-156349708" to="150997430#1"/>
    <trip id="48" om="858235729#1" to="172926762#0"/>
    <trip id="49" om="795343512" to="371876690"/>
    <trip id="50" om="-150942070#2" to="25947767#1"/>
    <trip id="51" om="232312994#0" to="177461166#3"/>
    <trip id="52" om="-371876690" to="197451487#4"/>
    <trip id="53" om="-194249916#0" to="156220120#4"/>
    <trip id="54" om="156224464#1" to="774963556#0"/>
    <trip id="55" om="451889304#1" to="-48137058#1"/>
    <trip id="56" om="168425232" to="-232312998#1"/>
    <trip id="57" om="550260401#2" to="451546303"/>
    <trip id="58" om="-851909658#1" to="197451487#2"/>
    <trip id="59" om="188944060#2" to="-228766404#2"/>
    <trip id="60" om="28409070" to="177461166#6"/>
    <trip id="61" om="294817175" to="172926762#2"/>
    <trip id="62" om="-108219017#0" to="150942070#3"/>
    <trip id="63" om="-150970795#2" to="678770086"/>
    <trip id="64" om="48137057" to="35008195#1"/>
    <trip id="65" om="-89536749#3" to="-151225883#1"/>
    <trip id="66" om="48137056#1" to="774963551#1"/>
    <trip id="67" om="-177461166#6" to="168425232"/>
    <trip id="68" om="-168425241" to="294817156"/>
    <trip id="69" om="294817158" to="-194291569#1"/>
    <trip id="70" om="156401439" to="179797812"/>
    <trip id="71" om="-371868257#2" to="451549189#0"/>
    <trip id="72" om="151293113#2" to="-34795198#0"/>
    <trip id="73" om="169506013" to="26964129#0"/>
    <trip id="74" om="-239207306#3" to="124431339#6"/>
    <trip id="75" om="858235729#0" to="223275940#1"/>
    <trip id="76" om="156220115#1" to="168426965"/>
    <trip id="77" om="-194281369#2" to="-34888705#0"/>
    <trip id="78" om="150942070#2" to="188944052#0"/>
    <trip id="79" om="-34888304#0" to="-34888304#2"/>
    <trip id="80" om="-168425242#1" to="197169807#0"/>
    <trip id="81" om="-34795258#4" to="550259732#0"/>
    <trip id="82" om="371877507" to="-168425242#2"/>
    <trip id="83" om="-34888705#2" to="232310358#0"/>
    <trip id="84" om="-26964362#1" to="-194452010#0"/>
    <trip id="85" om="731202328#0" to="180874582#1"/>
    <trip id="86" om="156359930#0" to="305605766#3"/>
    <trip id="87" om="34795198#1" to="-239207306#4"/>
    <trip id="88" om="-180880931#1" to="156220117#5"/>
    <trip id="89" om="151293113#2" to="156544576#0"/>
    <trip id="90" om="26261557#0" to="232311529#1"/>
    <trip id="91" om="858235724#7" to="-180880931#1"/>
    <trip id="92" om="150998056#5" to="150943403#9"/>
    <trip id="93" om="372218550#0" to="-371868257#1"/>
    <trip id="94" om="-232312997#0" to="156224469#1"/>
    <trip id="95" om="151293113#0" to="-737355012#1"/>
    <trip id="96" om="-353208563#1" to="62280358#2"/>
    <trip id="97" om="156220117#5" to="371876690"/>
    <trip id="98" om="177461166#2" to="-151224875#5"/>
    <trip id="99" om="89536749#3" to="35147622#1"/>
    <trip id="100" rom="776019069" to="62280362#2"/>
    <trip id="101" rom="371859663" to="-232311539"/>
    <trip id="102" rom="164947584#1" to="-34795258#0"/>
    <trip id="103" rom="150998056#4" to="-151225883#1"/>
    <trip id="104" rom="150970795#4" to="858235726#1"/>
    <trip id="105" rom="-371868257#2" to="305605766#2"/>
    <trip id="106" rom="156224464#2" to="156220113#0"/>
    <trip id="107" rom="774963557#1" to="858235729#1"/>
    <trip id="108" rom="179794908#0" to="25502104#6"/>
    <trip id="109" rom="-200142754" to="108219016#3"/>
    <trip id="110" rom="776019069" to="180880931#3"/>
    <trip id="111" rom="172926762#0" to="28371004"/>
    <trip id="112" rom="-151225881" to="182517033#4"/>
    <trip id="113" rom="168425233#2" to="371860747"/>
    <trip id="114" rom="-202146730#0" to="774963559#1"/>
    <trip id="115" rom="-177461166#0" to="-237994591"/>
    <trip id="116" rom="180881335" to="232311535#1"/>
    <trip id="117" rom="-34888558#1" to="-194281369#0"/>
    <trip id="118" rom="498784741" to="-371867927#2"/>
    <trip id="119" rom="180880931#2" to="194291569#2"/>
    <trip id="120" rom="151225883#1" to="182517033#3"/>
    <trip id="121" rom="168425926#1" to="6994403"/>
    <trip id="122" rom="-259521777#1" to="25502104#4"/>
    <trip id="123" rom="-34888921#0" to="151224875#6"/>
    <trip id="124" rom="232310358#1" to="108219017#1"/>
    <trip id="125" rom="118246572#0" to="28408954#3"/>
    <trip id="126" rom="-168425242#3" to="156350686#5"/>
    <trip id="127" rom="89536749#2" to="89536749#0"/>
    <trip id="128" rom="-168425930#0" to="-34795258#0"/>
    <trip id="129" rom="-371868257#2" to="678852097"/>
    <trip id="130" rom="48137795#0" to="48137058#0"/>
    <trip id="131" rom="150969060" to="-232308683#0"/>
    <trip id="132" rom="35147622#0" to="239207306#2"/>
    <trip id="133" rom="188944062#1" to="858235726#3"/>
    <trip id="134" rom="223275940#1" to="-150942068#0"/>
    <trip id="135" rom="34888304#3" to="108219017#0"/>
    <trip id="136" rom="228766404#2" to="748585940"/>
    <trip id="137" rom="-194452010#1" to="-194249916#3"/>
    <trip id="138" rom="-188944052#0" to="180126617#1"/>
    <trip id="139" rom="-372342434" to="194249916#4"/>
    <trip id="140" rom="25502104#0" to="-26964362#1"/>
    <trip id="141" rom="194291569#2" to="-48137058#2"/>
    <trip id="142" rom="164947588" to="550259647#1"/>
    <trip id="143" rom="353208571#1" to="-180874082#1"/>
    <trip id="144" rom="151293113#2" to="-731202328#1"/>
    <trip id="145" rom="-150941563#0" to="294817169"/>
    <trip id="146" rom="194452010#0" to="-451549189#2"/>
    <trip id="147" rom="26964362#4" to="180126616#1"/>
    <trip id="148" rom="155229294" to="-150942070#0"/>
    <trip id="149" rom="-168425930#2" to="48137795#1"/>
    <trip id="150" rom="550259646#1" to="179795385"/>
    <trip id="151" rom="35147622#1" to="182517033#2"/>
    <trip id="152" rom="-197451487#0" to="-194291569#0"/>
    <trip id="153" rom="-89536749#4" to="550259422#1"/>
    <trip id="154" rom="305607276#0" to="371876690"/>
    <trip id="155" rom="550259422#0" to="-305607065#1"/>
    <trip id="156" rom="-353208563#1" to="-182517033#3"/>
    <trip id="157" rom="305132862#0" to="48137798"/>
    <trip id="158" rom="151224875#12" to="194451735#0"/>
    <trip id="159" rom="-200142754" to="678770086"/>
    <trip id="160" rom="372337799#0" to="851909658#2"/>
    <trip id="161" rom="34795258#2" to="48137058#2"/>
    <trip id="162" rom="-150996422#1" to="26964362#4"/>
    <trip id="163" rom="150941570" to="678770089#1"/>
    <trip id="164" rom="34794423#1" to="372218550#2"/>
    <trip id="165" rom="34795258#2" to="-487172955"/>
    <trip id="166" rom="305605766#2" to="-188944052#0"/>
    <trip id="167" rom="451549189#1" to="371868257#1"/>
    <trip id="168" rom="-34795111" to="34888398#2"/>
    <trip id="169" rom="156224469#0" to="121863561"/>
    <trip id="170" rom="305607236" to="-34888921#1"/>
    <trip id="171" rom="-150970795#6" to="-259521777#0"/>
    <trip id="172" rom="150941558" to="372337799#0"/>
    <trip id="173" rom="774963563#1" to="-737355013"/>
    <trip id="174" rom="197169807#0" to="151224881"/>
    <trip id="175" rom="858235724#4" to="177461166#2"/>
    <trip id="176" rom="737355013" to="-194249916#3"/>
    <trip id="177" rom="795343511" to="-232312998#1"/>
    <trip id="178" rom="774963560" to="-48137798"/>
    <trip id="179" rom="-188944052#1" to="156220120#3"/>
    <trip id="180" rom="26261404" to="150941558"/>
    <trip id="181" rom="188944059" to="168425930#0"/>
    <trip id="182" rom="150996422#2" to="180880931#0"/>
    <trip id="183" rom="-358445856" to="25501965#2"/>
    <trip id="184" rom="-108219017#1" to="62280362#2"/>
    <trip id="185" rom="168428645" to="25502104#7"/>
    <trip id="186" rom="26964362#4" to="232310358#2"/>
    <trip id="187" rom="150969034#0" to="-168425242#1"/>
    <trip id="188" rom="228766404#3" to="150943403#12"/>
    <trip id="189" rom="108219016#5" to="358445843"/>
    <trip id="190" rom="25502104#2" to="108219017#1"/>
    <trip id="191" rom="108219016#0" to="151225885"/>
    <trip id="192" rom="150998056#5" to="108219016#2"/>
    <trip id="193" rom="-194291569#0" to="155229376#2"/>
    <trip id="194" rom="748585941" to="232312993#0"/>
    <trip id="195" rom="550259646#0" to="194282825"/>
    <trip id="196" rom="-858235728#1" to="179795912#2"/>
    <trip id="197" rom="-108219017#0" to="-858235728#1"/>
    <trip id="198" rom="155229299" to="180881335"/>
    <trip id="199" rom="223275940#2" to="156539793"/>
    <trip id="200" rom="156220117#4" to="-34795258#0"/>
    <trip id="201" rom="156359930#1" to="550259424#1"/>
    <trip id="202" rom="305607276#0" to="-232312993#3"/>
    <trip id="203" rom="-177461166#5" to="168426437"/>
    <trip id="204" rom="194291569#0" to="150943403#4"/>
    <trip id="205" rom="34888398#1" to="28408954#3"/>
    <trip id="206" rom="232310358#2" to="-34888705#0"/>
    <trip id="207" rom="-239207306#1" to="-150973118"/>
    <trip id="208" rom="-35009201" to="164947588"/>
    <trip id="209" rom="371860746#0" to="-168425930#1"/>
    <trip id="210" rom="151224875#9" to="196969236"/>
    <trip id="211" rom="-232313012" to="234301779#1"/>
    <trip id="212" rom="168423780#0" to="-371867927#0"/>
    <trip id="213" rom="223275940#3" to="-150941563#2"/>
    <trip id="214" rom="27430544" to="294817168"/>
    <trip id="215" rom="-188944046#1" to="156220115#1"/>
    <trip id="216" rom="-232311527#0" to="774963558#0"/>
    <trip id="217" rom="168425243#2" to="-151224875#5"/>
    <trip id="218" rom="-353208563#1" to="358445843"/>
    <trip id="219" rom="156224465#1" to="34794491#2"/>
    <trip id="220" rom="232308680#0" to="858235727#0"/>
    <trip id="221" rom="180881335" to="774963553#0"/>
    <trip id="222" rom="498784751" to="194281369#5"/>
    <trip id="223" rom="25502104#1" to="168425243#3"/>
    <trip id="224" rom="34888973#0" to="179795912#2"/>
    <trip id="225" rom="5249353" to="27001183#6"/>
    <trip id="226" rom="156401439" to="-451549188"/>
    <trip id="227" rom="-350599725" to="197451487#0"/>
    <trip id="228" rom="294817158" to="168426969"/>
    <trip id="229" rom="194281369#2" to="-678770089#1"/>
    <trip id="230" rom="-168426969" to="-858235728#0"/>
    <trip id="231" rom="-372337799#1" to="150942068#1"/>
    <trip id="232" rom="172846207#0" to="-197169807#2"/>
    <trip id="233" rom="-34888304#1" to="232313012"/>
    <trip id="234" rom="239207306#1" to="-166954190#0"/>
    <trip id="235" rom="151224875#13" to="179794909#0"/>
    <trip id="236" rom="151224876" to="-26964362#4"/>
    <trip id="237" rom="151225883#2" to="550259647#1"/>
    <trip id="238" rom="180874082#1" to="234301779#0"/>
    <trip id="239" rom="371868257#1" to="294817163"/>
    <trip id="240" rom="150970795#5" to="-150941563#2"/>
    <trip id="241" rom="150943403#6" to="28409021#1"/>
    <trip id="242" rom="371867927#1" to="774963555#1"/>
    <trip id="243" rom="151225883#1" to="27433784"/>
    <trip id="244" rom="177461163#0" to="194249916#2"/>
    <trip id="245" rom="-305607065#0" to="-34888304#1"/>
    <trip id="246" rom="156220113#0" to="-150996425"/>
    <trip id="247" rom="150942070#0" to="232312993#2"/>
    <trip id="248" rom="151224875#1" to="-232311535#0"/>
    <trip id="249" rom="156350686#1" to="-194291569#0"/>
    <trip id="250" rom="194249916#5" to="-150996422#2"/>
    <trip id="251" rom="150997303#2" to="180874080#2"/>
    <trip id="252" rom="-150996422#3" to="200142722"/>
    <trip id="253" rom="-194452010#2" to="156359930#2"/>
    <trip id="254" rom="-151224875#6" to="150997303#3"/>
    <trip id="255" rom="-26964129#2" to="150943403#0"/>
    <trip id="256" rom="28409068#0" to="150997303#3"/>
    <trip id="257" rom="27433784" to="35009201"/>
    <trip id="258" rom="-353208571#1" to="-177461166#2"/>
    <trip id="259" rom="-150970795#2" to="177461166#6"/>
    <trip id="260" rom="89536749#3" to="150969034#1"/>
    <trip id="261" rom="202146723#1" to="305596488"/>
    <trip id="262" rom="202146730#1" to="28409021#2"/>
    <trip id="263" rom="774963552#1" to="-26964129#0"/>
    <trip id="264" rom="-150970795#3" to="-228766404#1"/>
    <trip id="265" rom="-194282825" to="232310358#0"/>
    <trip id="266" rom="179795913" to="-34795258#5"/>
    <trip id="267" rom="234302871" to="294817165"/>
    <trip id="268" rom="-228766404#5" to="194249916#6"/>
    <trip id="269" rom="27001183#5" to="-194249916#2"/>
    <trip id="270" rom="34888398#2" to="774963562#1"/>
    <trip id="271" rom="-188944052#1" to="-150996422#1"/>
    <trip id="272" rom="108219016#3" to="232312993#0"/>
    <trip id="273" rom="774963557#2" to="151224875#7"/>
    <trip id="274" rom="25502091" to="-168426965"/>
    <trip id="275" rom="232312999" to="194452129#1"/>
    <trip id="276" rom="-182517033#3" to="294817172"/>
    <trip id="277" rom="371860747" to="193314742"/>
    <trip id="278" rom="-194281369#3" to="858235725"/>
    <trip id="279" rom="305133354#0" to="150969032#0"/>
    <trip id="280" rom="155229295" to="150996422#3"/>
    <trip id="281" rom="168425236#0" to="150943934"/>
    <trip id="282" rom="371860746#0" to="34888705#1"/>
    <trip id="283" rom="-188944046#0" to="774963559#1"/>
    <trip id="284" rom="194291569#3" to="34888973#0"/>
    <trip id="285" rom="239207306#2" to="156220120#4"/>
    <trip id="286" rom="26964056#2" to="774963563#0"/>
    <trip id="287" rom="-372218550#2" to="34795258#3"/>
    <trip id="288" rom="168428645" to="168423782#0"/>
    <trip id="289" rom="156220113#0" to="26964129#2"/>
    <trip id="290" rom="-372073034" to="371860746#1"/>
    <trip id="291" rom="35008195#0" to="-180874075"/>
    <trip id="292" rom="48137795#1" to="-371867927#0"/>
    <trip id="293" rom="156226038" to="194281369#2"/>
    <trip id="294" rom="150970795#4" to="-150996424"/>
    <trip id="295" rom="371862981" to="-234294772"/>
    <trip id="296" rom="-26964129#2" to="34794423#0"/>
    <trip id="297" rom="150942070#4" to="48137058#1"/>
    <trip id="298" rom="234353010" to="-731202328#1"/>
    <trip id="299" rom="-150942070#0" to="774963552#0"/>
    <trip id="300" rom="-177461166#6" to="25947767#0"/>
    <trip id="301" rom="164947588" to="28409371"/>
    <trip id="302" rom="232312999" to="200142755"/>
    <trip id="303" rom="166954190#0" to="305607276#0"/>
    <trip id="304" rom="-180876819#0" to="-34888304#3"/>
    <trip id="305" rom="232313000#0" to="124431339#0"/>
    <trip id="306" rom="180874080#3" to="164947584#2"/>
    <trip id="307" rom="168426439" to="156220115#1"/>
    <trip id="308" rom="27001183#3" to="150943403#13"/>
    <trip id="309" rom="237994591" to="-62280358#0"/>
    <trip id="310" rom="-353208570" to="-194281369#1"/>
    <trip id="311" rom="-232312998#1" to="-194281369#0"/>
    <trip id="312" rom="168426969" to="294817158"/>
    <trip id="313" rom="-232312994#1" to="-34795258#3"/>
    <trip id="314" rom="164947583#1" to="26261557#1"/>
    <trip id="315" rom="851909658#2" to="169506013"/>
    <trip id="316" rom="-498792738" to="-182517033#0"/>
    <trip id="317" rom="-232313012" to="-34888921#1"/>
    <trip id="318" rom="-232311535#1" to="-150942351"/>
    <trip id="319" rom="168426966#1" to="-678770089#0"/>
    <trip id="320" rom="851909119" to="180126617#1"/>
    <trip id="321" rom="234301779#0" to="-194282825"/>
    <trip id="322" rom="451068717#1" to="168425236#0"/>
    <trip id="323" rom="451549189#1" to="180879516#0"/>
    <trip id="324" rom="156350686#4" to="156224464#0"/>
    <trip id="325" rom="-232312994#0" to="-151224875#6"/>
    <trip id="326" rom="748585941" to="166954190#1"/>
    <trip id="327" rom="34888543" to="151225880#0"/>
    <trip id="328" rom="-168425930#1" to="196969236"/>
    <trip id="329" rom="-151224876" to="-223928893#1"/>
    <trip id="330" rom="179795912#2" to="118664440"/>
    <trip id="331" rom="858235728#4" to="-194261216"/>
    <trip id="332" rom="294817156" to="194249916#5"/>
    <trip id="333" rom="305605766#6" to="-34888705#1"/>
    <trip id="334" rom="168425926#1" to="156224604#2"/>
    <trip id="335" rom="156220117#4" to="371876566"/>
    <trip id="336" rom="858235727#1" to="121863561"/>
    <trip id="337" rom="194249916#3" to="194281369#1"/>
    <trip id="338" rom="26964362#2" to="774963552#0"/>
    <trip id="339" rom="-26964056#0" to="-34795111"/>
    <trip id="340" rom="223928893#1" to="-232308683#0"/>
    <trip id="341" rom="-232310358#1" to="-168426437"/>
    <trip id="342" rom="-118246572#1" to="156224604#2"/>
    <trip id="343" rom="180880931#1" to="-89536749#1"/>
    <trip id="344" rom="-34888304#1" to="25501965#0"/>
    <trip id="345" rom="237994591" to="156350686#1"/>
    <trip id="346" rom="232312997#0" to="62280362#0"/>
    <trip id="347" rom="305605766#3" to="194452010#2"/>
    <trip id="348" rom="223929200" to="6994399"/>
    <trip id="349" rom="151293113#4" to="179794909#2"/>
    <trip id="350" rom="197451487#2" to="550260398"/>
    <trip id="351" rom="34888921#0" to="-168425242#3"/>
    <trip id="352" rom="-228766404#3" to="124431339#1"/>
    <trip id="353" rom="27001183#6" to="180874082#3"/>
    <trip id="354" rom="-678770089#0" to="-194281369#5"/>
    <trip id="355" rom="232312998#0" to="239165086#0"/>
    <trip id="356" rom="748585943" to="168425242#3"/>
    <trip id="357" rom="168423771" to="-177461166#0"/>
    <trip id="358" rom="-150998056#3" to="156220120#0"/>
    <trip id="359" rom="124431339#1" to="-371876566"/>
    <trip id="360" rom="-180874082#2" to="774963560"/>
    <trip id="361" rom="35147622#2" to="180879516#1"/>
    <trip id="362" rom="774963553#0" to="89536749#4"/>
    <trip id="363" rom="232310358#2" to="-509396927"/>
    <trip id="364" rom="-150998056#3" to="28409068#0"/>
    <trip id="365" rom="156350686#5" to="223275940#3"/>
    <trip id="366" rom="550260666" to="-234294772"/>
    <trip id="367" rom="180874082#3" to="197169808#0"/>
    <trip id="368" rom="166954190#1" to="-180874082#0"/>
    <trip id="369" rom="150943403#15" to="150943403#2"/>
    <trip id="370" rom="232308683#1" to="371867927#3"/>
    <trip id="371" rom="150941563#0" to="232313012"/>
    <trip id="372" rom="-669926091" to="774963550#1"/>
    <trip id="373" rom="34795258#5" to="179797812"/>
    <trip id="374" rom="156224464#2" to="150941563#0"/>
    <trip id="375" rom="124431339#2" to="795343511"/>
    <trip id="376" rom="151224875#1" to="168426435#1"/>
    <trip id="377" rom="858235726#3" to="223929200"/>
    <trip id="378" rom="172926762#0" to="155229292"/>
    <trip id="379" rom="-232312994#3" to="150970795#1"/>
    <trip id="380" rom="28408954#3" to="194452010#2"/>
    <trip id="381" rom="28409021#3" to="-26964362#1"/>
    <trip id="382" rom="177461166#1" to="678770084"/>
    <trip id="383" rom="156220115#1" to="234353011"/>
    <trip id="384" rom="-194281369#3" to="851909119"/>
    <trip id="385" rom="188944060#2" to="-358445856"/>
    <trip id="386" rom="-202146730#1" to="180126616#0"/>
    <trip id="387" rom="177461166#4" to="-180874082#2"/>
    <trip id="388" rom="858235728#2" to="550260401#3"/>
    <trip id="389" rom="156224604#0" to="-194249916#6"/>
    <trip id="390" rom="35008195#1" to="168425242#0"/>
    <trip id="391" rom="25502100#0" to="168425927#0"/>
    <trip id="392" rom="-446735556" to="35147622#0"/>
    <trip id="393" rom="858235724#3" to="-371867927#0"/>
    <trip id="394" rom="177461166#3" to="150998056#1"/>
    <trip id="395" rom="600471904" to="168425926#1"/>
    <trip id="396" rom="48137058#0" to="372218550#2"/>
    <trip id="397" rom="-451549189#0" to="305607065#0"/>
    <trip id="398" rom="151224876" to="6994399"/>
    <trip id="399" rom="168425236#2" to="34888558#1"/>
    <trip id="400" rom="-498792738" to="108219016#5"/>
    <trip id="401" rom="180874582#1" to="89536749#3"/>
    <trip id="402" rom="166216150#1" to="-223928893#0"/>
    <trip id="403" rom="168428645" to="150969018#2"/>
    <trip id="404" rom="177461166#4" to="179794909#1"/>
    <trip id="405" rom="156224465#0" to="150942070#1"/>
    <trip id="406" rom="-232312994#5" to="234353010"/>
    <trip id="407" rom="180753311#2" to="-353208563#1"/>
    <trip id="408" rom="294817170" to="-151224875#1"/>
    <trip id="409" rom="27001183#1" to="239207306#4"/>
    <trip id="410" rom="34795258#3" to="150998056#4"/>
    <trip id="411" rom="228766404#2" to="34888558#1"/>
    <trip id="412" rom="858235724#4" to="168425240#1"/>
    <trip id="413" rom="-150998056#0" to="168425243#1"/>
    <trip id="414" rom="180876819#2" to="451068717#1"/>
    <trip id="415" rom="451889303" to="156224464#0"/>
    <trip id="416" rom="168425930#0" to="156350686#4"/>
    <trip id="417" rom="25502104#5" to="151293113#1"/>
    <trip id="418" rom="223275940#2" to="-228766404#4"/>
    <trip id="419" rom="156350686#4" to="776019070"/>
    <trip id="420" rom="150942070#2" to="232313000#3"/>
    <trip id="421" rom="202146723#0" to="371860746#1"/>
    <trip id="422" rom="371867927#0" to="371868257#2"/>
    <trip id="423" rom="150970795#5" to="150941570"/>
    <trip id="424" rom="25502104#1" to="294817155"/>
    <trip id="425" rom="451549189#1" to="-150997303#4"/>
    <trip id="426" rom="-168425235" to="197169807#0"/>
    <trip id="427" rom="550262929#2" to="89536749#2"/>
    <trip id="428" rom="27001183#4" to="156220120#3"/>
    <trip id="429" rom="-180880931#3" to="197169807#3"/>
    <trip id="430" rom="451549189#1" to="156224465#1"/>
    <trip id="431" rom="232313000#3" to="550259646#1"/>
    <trip id="432" rom="-151224875#13" to="307212660#1"/>
    <trip id="433" rom="-737355013" to="150997301#0"/>
    <trip id="434" rom="-197169808#0" to="172926762#3"/>
    <trip id="435" rom="180126616#1" to="305607276#0"/>
    <trip id="436" rom="-232308680#1" to="-177461163#2"/>
    <trip id="437" rom="451549188" to="194291569#3"/>
    <trip id="438" rom="-34888960" to="550260401#3"/>
    <trip id="439" rom="-197169807#2" to="156359930#2"/>
    <trip id="440" rom="-358445843" to="-372337799#0"/>
    <trip id="441" rom="-150942068#2" to="34795212"/>
    <trip id="442" rom="550259424#0" to="232312993#1"/>
    <trip id="443" rom="-202146730#1" to="156224464#2"/>
    <trip id="444" rom="150943403#12" to="188944046#1"/>
    <trip id="445" rom="194452010#2" to="156220115#0"/>
    <trip id="446" rom="-353208569" to="353208570"/>
    <trip id="447" rom="-239207306#1" to="150998056#2"/>
    <trip id="448" rom="164947583#0" to="-353208571#1"/>
    <trip id="449" rom="180753311#2" to="180879516#0"/>
    <trip id="450" rom="858235728#2" to="108219016#1"/>
    <trip id="451" rom="858235724#0" to="228766404#0"/>
    <trip id="452" rom="-451068714" to="180874080#4"/>
    <trip id="453" rom="232312994#4" to="27001183#7"/>
    <trip id="454" rom="-151224875#4" to="194249916#5"/>
    <trip id="455" rom="168423782#0" to="550259647#0"/>
    <trip id="456" rom="-62280358#1" to="34794423#1"/>
    <trip id="457" rom="188944060#0" to="150969038#1"/>
    <trip id="458" rom="194451735#0" to="194451735#0"/>
    <trip id="459" rom="232311539" to="25947767#1"/>
    <trip id="460" rom="223928893#0" to="35147622#4"/>
    <trip id="461" rom="194281369#4" to="550259646#1"/>
    <trip id="462" rom="197451487#0" to="124431339#3"/>
    <trip id="463" rom="156220117#2" to="180881335"/>
    <trip id="464" rom="26964056#0" to="-180874080#3"/>
    <trip id="465" rom="-748585945" to="27433784"/>
    <trip id="466" rom="-232311527#0" to="-194452010#0"/>
    <trip id="467" rom="169506013" to="839393273"/>
    <trip id="468" rom="168426439" to="550260663"/>
    <trip id="469" rom="34888973#0" to="-372342434"/>
    <trip id="470" rom="34888705#0" to="168423780#1"/>
    <trip id="471" rom="34795198#0" to="27430544"/>
    <trip id="472" rom="150942070#3" to="-194249916#3"/>
    <trip id="473" rom="774963560" to="-197451487#0"/>
    <trip id="474" rom="774963563#0" to="371876566"/>
    <trip id="475" rom="25502104#7" to="858235724#4"/>
    <trip id="476" rom="774963563#1" to="34795212"/>
    <trip id="477" rom="150969034#1" to="305607065#1"/>
    <trip id="478" rom="-150942070#4" to="177461166#3"/>
    <trip id="479" rom="156224464#2" to="232311527#1"/>
    <trip id="480" rom="232310358#2" to="182517033#4"/>
    <trip id="481" rom="34888543" to="748585941"/>
    <trip id="482" rom="-188944052#1" to="-353208563#1"/>
    <trip id="483" rom="-150996422#1" to="48137798"/>
    <trip id="484" rom="179795912#1" to="550260666"/>
    <trip id="485" rom="-305607065#1" to="-156359930#2"/>
    <trip id="486" rom="34888558#1" to="550260400"/>
    <trip id="487" rom="-858235728#2" to="151225885"/>
    <trip id="488" rom="-196969236" to="774963551#0"/>
    <trip id="489" rom="-858235728#4" to="168425236#2"/>
    <trip id="490" rom="-180880931#1" to="48138730#1"/>
    <trip id="491" rom="-194452010#2" to="156350686#0"/>
    <trip id="492" rom="232310358#0" to="27001183#5"/>
    <trip id="493" rom="774963550#1" to="155229376#1"/>
    <trip id="494" rom="26964550" to="-228766404#4"/>
    <trip id="495" rom="151224875#9" to="-180880931#1"/>
    <trip id="496" rom="166216150#0" to="151225885"/>
    <trip id="497" rom="774963553#1" to="-150997303#1"/>
    <trip id="498" rom="150970156#0" to="156224465#0"/>
    <trip id="499" rom="774963553#0" to="371867927#1"/>
    <trip id="500" rom="-182517033#0" to="232312997#0"/>
    <trip id="501" rom="172926762#2" to="858235724#1"/>
    <trip id="502" rom="150969018#0" to="151224875#9"/>
    <trip id="503" rom="-232312997#0" to="-194281369#3"/>
    <trip id="504" rom="358445843" to="156350686#1"/>
    <trip id="505" rom="228766404#1" to="200142721"/>
    <trip id="506" rom="182517033#1" to="-150970795#4"/>
    <trip id="507" rom="305605766#1" to="-371862981"/>
    <trip id="508" rom="-194282825" to="180874080#3"/>
    <trip id="509" rom="-168425241" to="294817163"/>
    <trip id="510" rom="-26964056#0" to="-34795258#3"/>
    <trip id="511" rom="451546303" to="150943403#10"/>
    <trip id="512" rom="-197451487#0" to="550259424#0"/>
    <trip id="513" rom="-118246572#1" to="371868257#1"/>
    <trip id="514" rom="-197169807#3" to="-194291569#3"/>
    <trip id="515" rom="-353208569" to="-232312994#5"/>
    <trip id="516" rom="223929200" to="-150996422#1"/>
    <trip id="517" rom="-150942351" to="305607065#0"/>
    <trip id="518" rom="-34888705#2" to="150942070#3"/>
    <trip id="519" rom="-232310358#1" to="-151224875#7"/>
    <trip id="520" rom="26964362#4" to="172846207#0"/>
    <trip id="521" rom="27001183#3" to="166216150#0"/>
    <trip id="522" rom="294817174" to="168425930#2"/>
    <trip id="523" rom="-188944059" to="168425243#2"/>
    <trip id="524" rom="774963550#0" to="-151224875#1"/>
    <trip id="525" rom="305133354#0" to="446735556"/>
    <trip id="526" rom="168425926#0" to="156350686#5"/>
    <trip id="527" rom="774963561" to="-156349708"/>
    <trip id="528" rom="156544576#0" to="151225880#1"/>
    <trip id="529" rom="232312994#5" to="168425235"/>
    <trip id="530" rom="550260400" to="-168425930#1"/>
    <trip id="531" rom="-177461166#1" to="194281369#0"/>
    <trip id="532" rom="-156359930#2" to="-678770089#1"/>
    <trip id="533" rom="194291569#0" to="179795912#2"/>
    <trip id="534" rom="124431339#4" to="858235729#0"/>
    <trip id="535" rom="168426437" to="156350686#0"/>
    <trip id="536" rom="188944052#1" to="-180880931#2"/>
    <trip id="537" rom="234353011" to="371862981"/>
    <trip id="538" rom="202146730#0" to="294817167"/>
    <trip id="539" rom="25502104#3" to="-34795258#2"/>